@<TRIPOS>MOLECULE
ZINC000000000007
43    43    1     0     0
SMALL
USER_CHARGES
@<TRIPOS>ATOM
1      C1     -0.0157    1.3058    0.0092 C.2      1 ZINC000000000007   -0.1900
2      C2      0.0021   -0.0041    0.0020 C.2      1 ZINC000000000007   -0.1500
3      C3      1.3172   -0.7397   -0.0145 C.3      1 ZINC000000000007   -0.0500
4      C4      1.3689   -1.7024    1.1438 C.ar     1 ZINC000000000007   -0.0700
5      C5      1.8728   -1.2886    2.3624 C.ar     1 ZINC000000000007   -0.1100
6      C6      1.9228   -2.1683    3.4281 C.ar     1 ZINC000000000007   -0.1700
7      C7      1.4667   -3.4674    3.2758 C.ar     1 ZINC000000000007    0.0900
8      O8      1.5147   -4.3337    4.3231 O.3      1 ZINC000000000007   -0.2800
9      C9      2.0480   -3.8368    5.5521 C.3      1 ZINC000000000007    0.0400
10     C10     2.0216   -4.9296    6.5895 C.2      1 ZINC000000000007    0.5200
11     O11     1.5886   -6.0260    6.3044 O.2      1 ZINC000000000007   -0.5100
12     N12     2.4791   -4.6885    7.8341 N.am     1 ZINC000000000007   -0.6100
13     C13     2.4534   -5.7509    8.8425 C.3      1 ZINC000000000007    0.1100
14     C14     3.7650   -6.5369    8.7888 C.3      1 ZINC000000000007   -0.1700
15     C15     3.0021   -3.3641    8.1785 C.3      1 ZINC000000000007    0.1000
16     C16     1.8637   -2.4869    8.7032 C.3      1 ZINC000000000007   -0.1800
17     C17     0.9587   -3.8841    2.0487 C.ar     1 ZINC000000000007    0.1100
18     O18     0.5092   -5.1583    1.8944 O.3      1 ZINC000000000007   -0.3000
19     C19     0.0015   -5.5157    0.6073 C.3      1 ZINC000000000007    0.0300
20     C20     0.9067   -2.9962    0.9866 C.ar     1 ZINC000000000007   -0.1700
21     H21     0.9122    1.8585    0.0033 H        1 ZINC000000000007    0.1000
22     H22    -0.9582    1.8330    0.0166 H        1 ZINC000000000007    0.1000
23     H23    -0.9258   -0.5567    0.0079 H        1 ZINC000000000007    0.1100
24     H24     1.4134   -1.2911   -0.9498 H        1 ZINC000000000007    0.0800
25     H25     2.1349   -0.0241    0.0711 H        1 ZINC000000000007    0.0800
26     H26     2.2288   -0.2760    2.4824 H        1 ZINC000000000007    0.1300
27     H27     2.3177   -1.8427    4.3791 H        1 ZINC000000000007    0.1300
28     H28     3.0757   -3.5088    5.3960 H        1 ZINC000000000007    0.0900
29     H29     1.4463   -2.9953    5.8955 H        1 ZINC000000000007    0.0900
30     H30     2.3346   -5.3097    9.8321 H        1 ZINC000000000007    0.0800
31     H31     1.6188   -6.4225    8.6415 H        1 ZINC000000000007    0.0900
32     H32     3.7459   -7.3273    9.5391 H        1 ZINC000000000007    0.0700
33     H33     3.8839   -6.9781    7.7992 H        1 ZINC000000000007    0.0600
34     H34     4.5996   -5.8652    8.9898 H        1 ZINC000000000007    0.0600
35     H35     3.7676   -3.4646    8.9479 H        1 ZINC000000000007    0.0900
36     H36     3.4368   -2.9032    7.2916 H        1 ZINC000000000007    0.0800
37     H37     1.0982   -2.3864    7.9338 H        1 ZINC000000000007    0.0600
38     H38     1.4290   -2.9478    9.5902 H        1 ZINC000000000007    0.0600
39     H39     2.2528   -1.5015    8.9595 H        1 ZINC000000000007    0.0700
40     H40    -0.8446   -4.8747    0.3597 H        1 ZINC000000000007    0.0600
41     H41     0.7846   -5.3888   -0.1402 H        1 ZINC000000000007    0.0600
42     H42    -0.3227   -6.5563    0.6208 H        1 ZINC000000000007    0.1000
43     H43     0.5130   -3.3170    0.0334 H        1 ZINC000000000007    0.1400
@<TRIPOS>BOND
1     1     2     2
2     1     21    1
3     1     22    1
4     2     3     1
5     2     23    1
6     3     4     1
7     3     24    1
8     3     25    1
9     4     20    ar
10    4     5     ar
11    5     6     ar
12    5     26    1
13    6     7     ar
14    6     27    1
15    7     8     1
16    7     17    ar
17    8     9     1
18    9     10    1
19    9     28    1
20    9     29    1
21    10    11    2
22    10    12    am
23    12    13    1
24    12    15    1
25    13    14    1
26    13    30    1
27    13    31    1
28    14    32    1
29    14    33    1
30    14    34    1
31    15    16    1
32    15    35    1
33    15    36    1
34    16    37    1
35    16    38    1
36    16    39    1
37    17    18    1
38    17    20    ar
39    18    19    1
40    19    40    1
41    19    41    1
42    19    42    1
43    20    43    1
@<TRIPOS>SUBSTRUCTURE
1   ZINC000000000007 1     RESIDUE    1   A     ZIN   1