@<TRIPOS>MOLECULE
ZINC000000000007
43    43    1     0     0
SMALL
USER_CHARGES
@<TRIPOS>ATOM
1      C1     -0.0157    1.3058    0.0092 C.2      1 ZINC000000000007   -0.1900
2      C2      0.0021   -0.0041    0.0020 C.2      1 ZINC000000000007   -0.1500
3      C3      1.3172   -0.7397   -0.0145 C.3      1 ZINC000000000007   -0.0500
4      C4      1.3689   -1.7024    1.1438 C.ar     1 ZINC000000000007   -0.0700
5      C5      1.8728   -1.2886    2.3624 C.ar     1 ZINC000000000007   -0.1100
6      C6      1.9228   -2.1683    3.4281 C.ar     1 ZINC000000000007   -0.1700
7      C7      1.4667   -3.4674    3.2758 C.ar     1 ZINC000000000007    0.0900
8      O8      1.5147   -4.3337    4.3231 O.3      1 ZINC000000000007   -0.2800
9      C9      2.0480   -3.8368    5.5521 C.3      1 ZINC000000000007    0.0400
10     C10     2.0216   -4.9296    6.5895 C.2      1 ZINC000000000007    0.5200
11     O11     1.5886   -6.0260    6.3044 O.2      1 ZINC000000000007   -0.5100
12     N12     2.4791   -4.6885    7.8341 N.am     1 ZINC000000000007   -0.6100
13     C13     2.4534   -5.7509    8.8425 C.3      1 ZINC000000000007    0.1100
14     C14     3.7650   -6.5369    8.7888 C.3      1 ZINC000000000007   -0.1700
15     C15     3.0021   -3.3641    8.1785 C.3      1 ZINC000000000007    0.1000
16     C16     1.8637   -2.4869    8.7032 C.3      1 ZINC000000000007   -0.1800
17     C17     0.9587   -3.8841    2.0487 C.ar     1 ZINC000000000007    0.1100
18     O18     0.5092   -5.1583    1.8944 O.3      1 ZINC000000000007   -0.3000
19     C19     0.0015   -5.5157    0.6073 C.3      1 ZINC000000000007    0.0300
20     C20     0.9067   -2.9962    0.9866 C.ar     1 ZINC000000000007   -0.1700
21     H21     0.9122    1.8585    0.0033 H        1 ZINC000000000007    0.1000
22     H22    -0.9582    1.8330    0.0166 H        1 ZINC000000000007    0.1000
23     H23    -0.9258   -0.5567    0.0079 H        1 ZINC000000000007    0.1100
24     H24     1.4134   -1.2911   -0.9498 H        1 ZINC000000000007    0.0800
25     H25     2.1349   -0.0241    0.0711 H        1 ZINC000000000007    0.0800
26     H26     2.2288   -0.2760    2.4824 H        1 ZINC000000000007    0.1300
27     H27     2.3177   -1.8427    4.3791 H        1 ZINC000000000007    0.1300
28     H28     3.0757   -3.5088    5.3960 H        1 ZINC000000000007    0.0900
29     H29     1.4463   -2.9953    5.8955 H        1 ZINC000000000007    0.0900
30     H30     2.3346   -5.3097    9.8321 H        1 ZINC000000000007    0.0800
31     H31     1.6188   -6.4225    8.6415 H        1 ZINC000000000007    0.0900
32     H32     3.7459   -7.3273    9.5391 H        1 ZINC000000000007    0.0700
33     H33     3.8839   -6.9781    7.7992 H        1 ZINC000000000007    0.0600
34     H34     4.5996   -5.8652    8.9898 H        1 ZINC000000000007    0.0600
35     H35     3.7676   -3.4646    8.9479 H        1 ZINC000000000007    0.0900
36     H36     3.4368   -2.9032    7.2916 H        1 ZINC000000000007    0.0800
37     H37     1.0982   -2.3864    7.9338 H        1 ZINC000000000007    0.0600
38     H38     1.4290   -2.9478    9.5902 H        1 ZINC000000000007    0.0600
39     H39     2.2528   -1.5015    8.9595 H        1 ZINC000000000007    0.0700
40     H40    -0.8446   -4.8747    0.3597 H        1 ZINC000000000007    0.0600
41     H41     0.7846   -5.3888   -0.1402 H        1 ZINC000000000007    0.0600
42     H42    -0.3227   -6.5563    0.6208 H        1 ZINC000000000007    0.1000
43     H43     0.5130   -3.3170    0.0334 H        1 ZINC000000000007    0.1400
@<TRIPOS>BOND
1     1     2     2
2     1     21    1
3     1     22    1
4     2     3     1
5     2     23    1
6     3     4     1
7     3     24    1
8     3     25    1
9     4     20    ar
10    4     5     ar
11    5     6     ar
12    5     26    1
13    6     7     ar
14    6     27    1
15    7     8     1
16    7     17    ar
17    8     9     1
18    9     10    1
19    9     28    1
20    9     29    1
21    10    11    2
22    10    12    am
23    12    13    1
24    12    15    1
25    13    14    1
26    13    30    1
27    13    31    1
28    14    32    1
29    14    33    1
30    14    34    1
31    15    16    1
32    15    35    1
33    15    36    1
34    16    37    1
35    16    38    1
36    16    39    1
37    17    18    1
38    17    20    ar
39    18    19    1
40    19    40    1
41    19    41    1
42    19    42    1
43    20    43    1
@<TRIPOS>SUBSTRUCTURE
1   ZINC000000000007 1     RESIDUE    1   A     ZIN   1
@<TRIPOS>MOLECULE
ZINC000000000010
  25   26    0    0    0
SMALL
USER_CHARGES
NO_NAME
@<TRIPOS>ATOM
    1 C1       -0.0187     1.5258     0.0104 C.3    1 <0>      -0.1300
    2 C2        0.0021    -0.0041     0.0020 C.3    1 <0>       0.0600
    3 C3       -1.4036    -0.5466    -0.0254 C.ar   1 <0>      -0.0800
    4 C4       -2.0658    -0.8106     1.1589 C.ar   1 <0>      -0.1100
    5 C5       -3.3553    -1.3082     1.1337 C.ar   1 <0>      -0.1200
    6 C6       -3.9826    -1.5414    -0.0758 C.ar   1 <0>      -0.1200
    7 C7       -3.3208    -1.2765    -1.2601 C.ar   1 <0>      -0.1200
    8 C8       -2.0329    -0.7748    -1.2349 C.ar   1 <0>      -0.0900
    9 O9        0.7469    -0.4863    -1.1222 O.3    1 <0>      -0.2500
   10 C10       1.8000    -1.2047    -0.6959 C.2    1 <0>       0.1300
   11 C11       2.7770    -1.8475    -1.6068 C.2    1 <0>       0.5400
   12 O12       3.7118    -2.4867    -1.1475 O.co2  1 <0>      -0.6400
   13 O13       2.6476    -1.7382    -2.8170 O.co2  1 <0>      -0.6500
   14 C14       1.8731    -1.2784     0.6489 C.2    1 <0>      -0.3700
   15 C15       0.7465    -0.5284     1.2143 C.2    1 <0>       0.3800
   16 O16       0.4728    -0.3649     2.3850 O.2    1 <0>      -0.4600
   17 H17       1.0039     1.9031     0.0027 H      1 <0>       0.0700
   18 H18      -0.5459     1.8868    -0.8726 H      1 <0>       0.0800
   19 H19      -0.5289     1.8773     0.9072 H      1 <0>       0.0800
   20 H20      -1.5757    -0.6284     2.1039 H      1 <0>       0.1400
   21 H21      -3.8724    -1.5151     2.0590 H      1 <0>       0.1200
   22 H22      -4.9898    -1.9308    -0.0955 H      1 <0>       0.1200
   23 H23      -3.8108    -1.4590    -2.2051 H      1 <0>       0.1200
   24 H24      -1.5158    -0.5679    -2.1602 H      1 <0>       0.1300
   25 H25       2.6317    -1.8006     1.2131 H      1 <0>       0.1600
@<TRIPOS>BOND
   1    1    2 1
   2    1   17 1
   3    1   18 1
   4    1   19 1
   5    2   15 1
   6    2    3 1
   7    2    9 1
   8    3    8 ar
   9    3    4 ar
  10    4    5 ar
  11    4   20 1
  12    5    6 ar
  13    5   21 1
  14    6    7 ar
  15    6   22 1
  16    7    8 ar
  17    7   23 1
  18    8   24 1
  19    9   10 1
  20   10   11 1
  21   10   14 2
  22   11   12 ar
  23   11   13 ar
  24   14   15 1
  25   14   25 1
  26   15   16 2
@<TRIPOS>MOLECULE
ZINC000000000011
43    44    1     0     0
SMALL
USER_CHARGES
@<TRIPOS>ATOM
1      C1     -0.0173    1.4248    0.0099 C.3      1 ZINC000000000011    0.0200
2      O2      0.0021   -0.0041    0.0020 O.3      1 ZINC000000000011   -0.3100
3      C3      0.6063   -0.6076   -1.0566 C.ar     1 ZINC000000000011    0.1400
4      C4      1.1731    0.1596   -2.0625 C.ar     1 ZINC000000000011   -0.2300
5      C5      1.7875   -0.4528   -3.1390 C.ar     1 ZINC000000000011    0.0000
6      C6      2.4021    0.3858   -4.2299 C.3      1 ZINC000000000011   -0.0200
7      C7      3.8426    0.6722   -3.8921 C.ar     1 ZINC000000000011   -0.3100
8      C8      4.1978    1.8400   -3.2466 C.ar     1 ZINC000000000011    0.2200
9      N9      5.4732    2.0623   -2.9636 N.ar     1 ZINC000000000011   -0.6100
10     C10     6.4069    1.1816   -3.2911 C.ar     1 ZINC000000000011    0.6000
11     N11     7.7278    1.4505   -2.9777 N.pl3    1 ZINC000000000011   -0.8200
12     N12     6.1078    0.0496   -3.9108 N.ar     1 ZINC000000000011   -0.6300
13     C13     4.8481   -0.2404   -4.2198 C.ar     1 ZINC000000000011    0.4900
14     N14     4.5382   -1.4251   -4.8674 N.pl3    1 ZINC000000000011   -0.8400
15     C15     1.8403   -1.8321   -3.2176 C.ar     1 ZINC000000000011   -0.2400
16     C16     1.2767   -2.6076   -2.2163 C.ar     1 ZINC000000000011    0.1900
17     O17     1.3292   -3.9645   -2.2948 O.3      1 ZINC000000000011   -0.2900
18     C18     1.9807   -4.5236   -3.4371 C.3      1 ZINC000000000011    0.0200
19     C19     0.6616   -1.9959   -1.1287 C.ar     1 ZINC000000000011    0.0100
20     N20     0.0898   -2.7765   -0.1130 N.3      1 ZINC000000000011   -0.4900
21     C21     0.7212   -2.4976    1.1838 C.3      1 ZINC000000000011    0.0300
22     C22    -1.3632   -2.5713   -0.0461 C.3      1 ZINC000000000011    0.0300
23     H23     1.0053    1.8021    0.0021 H        1 ZINC000000000011    0.0600
24     H24    -0.5445    1.7859   -0.8732 H        1 ZINC000000000011    0.0600
25     H25    -0.5275    1.7763    0.9067 H        1 ZINC000000000011    0.1000
26     H26     1.1343    1.2374   -2.0053 H        1 ZINC000000000011    0.1300
27     H27     2.3510   -0.1539   -5.1755 H        1 ZINC000000000011    0.0800
28     H28     1.8559    1.3250   -4.3176 H        1 ZINC000000000011    0.0900
29     H29     3.4443    2.5647   -2.9756 H        1 ZINC000000000011    0.1600
30     H30     7.9602    2.2756   -2.5237 H        1 ZINC000000000011    0.4200
31     H31     8.4212    0.8139   -3.2119 H        1 ZINC000000000011    0.4100
32     H32     5.2430   -2.0501   -5.0987 H        1 ZINC000000000011    0.4100
33     H33     3.6164   -1.6296   -5.0895 H        1 ZINC000000000011    0.4100
34     H34     2.3210   -2.3060   -4.0606 H        1 ZINC000000000011    0.1300
35     H35     1.9521   -5.6115   -3.3755 H        1 ZINC000000000011    0.1000
36     H36     1.4694   -4.1974   -4.3428 H        1 ZINC000000000011    0.0600
37     H37     3.0175   -4.1883   -3.4644 H        1 ZINC000000000011    0.0500
38     H38     0.5870   -1.4453    1.4343 H        1 ZINC000000000011    0.0400
39     H39     0.2592   -3.1160    1.9533 H        1 ZINC000000000011    0.0700
40     H40     1.7857   -2.7244    1.1259 H        1 ZINC000000000011    0.0600
41     H41    -1.8140   -2.8518   -0.9981 H        1 ZINC000000000011    0.0600
42     H42    -1.7810   -3.1882    0.7495 H        1 ZINC000000000011    0.0700
43     H43    -1.5728   -1.5217    0.1599 H        1 ZINC000000000011    0.0400
@<TRIPOS>BOND
1     1     2     1
2     1     23    1
3     1     24    1
4     1     25    1
5     2     3     1
6     3     19    ar
7     3     4     ar
8     4     5     ar
9     4     26    1
10    5     6     1
11    5     15    ar
12    6     7     1
13    6     27    1
14    6     28    1
15    7     13    ar
16    7     8     ar
17    8     9     ar
18    8     29    1
19    9     10    ar
20    10    11    1
21    10    12    ar
22    11    30    1
23    11    31    1
24    12    13    ar
25    13    14    1
26    14    32    1
27    14    33    1
28    15    16    ar
29    15    34    1
30    16    17    1
31    16    19    ar
32    17    18    1
33    18    35    1
34    18    36    1
35    18    37    1
36    19    20    1
37    20    21    1
38    20    22    1
39    21    38    1
40    21    39    1
41    21    40    1
42    22    41    1
43    22    42    1
44    22    43    1
@<TRIPOS>SUBSTRUCTURE
1   ZINC000000000011 1     RESIDUE    1   A     ZIN   1

@<TRIPOS>MOLECULE
ZINC000000000011
44    45    1     0     0
SMALL
USER_CHARGES
@<TRIPOS>ATOM
1      C1     -0.0173    1.4248    0.0099 C.3      1 ZINC000000000011    0.0200
2      O2      0.0021   -0.0041    0.0020 O.3      1 ZINC000000000011   -0.3000
3      C3     -1.2013   -0.6380    0.0101 C.ar     1 ZINC000000000011    0.1500
4      C4     -2.3747    0.1001    0.0195 C.ar     1 ZINC000000000011   -0.2300
5      C5     -3.5984   -0.5432    0.0277 C.ar     1 ZINC000000000011   -0.0300
6      C6     -4.8711    0.2637    0.0378 C.3      1 ZINC000000000011   -0.0300
7      C7     -5.3057    0.5343   -1.3795 C.ar     1 ZINC000000000011   -0.2200
8      C8     -4.9537    1.7092   -2.0140 C.ar     1 ZINC000000000011    0.2100
9      N9     -5.3516    1.9171   -3.2608 N.ar     1 ZINC000000000011   -0.5700
10     H10    -5.1060    2.7411   -3.7099 H        1 ZINC000000000011    0.4400
11     C11    -6.0796    1.0156   -3.9026 C.ar     1 ZINC000000000011    0.6600
12     N12    -6.4750    1.2701   -5.2042 N.pl3    1 ZINC000000000011   -0.7900
13     N13    -6.4382   -0.1238   -3.3298 N.ar     1 ZINC000000000011   -0.5700
14     C14    -6.0690   -0.4002   -2.0833 C.ar     1 ZINC000000000011    0.5400
15     N15    -6.4451   -1.5926   -1.4870 N.pl3    1 ZINC000000000011   -0.7800
16     C16    -3.6583   -1.9245    0.0261 C.ar     1 ZINC000000000011   -0.2400
17     C17    -2.4902   -2.6710    0.0163 C.ar     1 ZINC000000000011    0.2000
18     O18    -2.5503   -4.0298    0.0148 O.3      1 ZINC000000000011   -0.2800
19     C19    -3.8509   -4.6217    0.0237 C.3      1 ZINC000000000011    0.0200
20     C20    -1.2565   -2.0281    0.0032 C.ar     1 ZINC000000000011    0.0300
21     N21    -0.0718   -2.7793   -0.0068 N.3      1 ZINC000000000011   -0.4900
22     C22     0.7285   -2.4843   -1.2028 C.3      1 ZINC000000000011    0.0200
23     C23     0.7071   -2.5502    1.2175 C.3      1 ZINC000000000011    0.0300
24     H24     1.0053    1.8021    0.0021 H        1 ZINC000000000011    0.1100
25     H25    -0.5445    1.7859   -0.8732 H        1 ZINC000000000011    0.0500
26     H26    -0.5275    1.7763    0.9067 H        1 ZINC000000000011    0.0600
27     H27    -2.3328    1.1792    0.0207 H        1 ZINC000000000011    0.1300
28     H28    -5.6508   -0.2939    0.5568 H        1 ZINC000000000011    0.1000
29     H29    -4.6977    1.2093    0.5515 H        1 ZINC000000000011    0.1100
30     H30    -4.3607    2.4508   -1.4994 H        1 ZINC000000000011    0.2100
31     H31    -6.2189    2.1004   -5.6353 H        1 ZINC000000000011    0.4300
32     H32    -7.0084    0.6182   -5.6853 H        1 ZINC000000000011    0.4500
33     H33    -6.9819   -2.2331   -1.9795 H        1 ZINC000000000011    0.4300
34     H34    -6.1717   -1.7872   -0.5769 H        1 ZINC000000000011    0.4300
35     H35    -4.6165   -2.4226    0.0329 H        1 ZINC000000000011    0.1200
36     H36    -3.7560   -5.7076    0.0214 H        1 ZINC000000000011    0.1100
37     H37    -4.3878   -4.3058    0.9182 H        1 ZINC000000000011    0.0600
38     H38    -4.4011   -4.3033   -0.8618 H        1 ZINC000000000011    0.0500
39     H39     0.9860   -1.4253   -1.2156 H        1 ZINC000000000011    0.0400
40     H40     1.6412   -3.0800   -1.1853 H        1 ZINC000000000011    0.0700
41     H41     0.1521   -2.7289   -2.0951 H        1 ZINC000000000011    0.0600
42     H42     0.1152   -2.8426    2.0848 H        1 ZINC000000000011    0.0700
43     H43     1.6202   -3.1444    1.1837 H        1 ZINC000000000011    0.0700
44     H44     0.9639   -1.4935    1.2923 H        1 ZINC000000000011    0.0400
@<TRIPOS>BOND
1     1     2     1
2     1     24    1
3     1     25    1
4     1     26    1
5     2     3     1
6     3     20    ar
7     3     4     ar
8     4     5     ar
9     4     27    1
10    5     6     1
11    5     16    ar
12    6     7     1
13    6     28    1
14    6     29    1
15    7     14    ar
16    7     8     ar
17    8     9     ar
18    8     30    1
19    9     10    1
20    9     11    ar
21    11    12    1
22    11    13    ar
23    12    31    1
24    12    32    1
25    13    14    ar
26    14    15    1
27    15    33    1
28    15    34    1
29    16    17    ar
30    16    35    1
31    17    18    1
32    17    20    ar
33    18    19    1
34    19    36    1
35    19    37    1
36    19    38    1
37    20    21    1
38    21    22    1
39    21    23    1
40    22    39    1
41    22    40    1
42    22    41    1
43    23    42    1
44    23    43    1
45    23    44    1
@<TRIPOS>SUBSTRUCTURE
1   ZINC000000000011 1     RESIDUE    1   A     ZIN   1
@<TRIPOS>MOLECULE
ZINC000000000012
  35   36    0    0    0
SMALL
USER_CHARGES
NO_NAME
@<TRIPOS>ATOM
    1 O1       -0.3176     1.7016    -0.9828 O.2    1 <0>      -0.5100
    2 C2        0.1225     2.8296    -0.9136 C.2    1 <0>       0.5500
    3 C3        1.5803     3.0519    -0.6030 C.3    1 <0>      -0.4900
    4 S4        2.4037     1.4499    -0.3876 S.o    1 <0>       1.3200
    5 O5        2.3573     0.7255    -1.6092 O.2    1 <0>      -0.8000
    6 C6        4.1188     1.9179    -0.0270 C.3    1 <0>      -0.3500
    7 C7        4.1457     2.8609     1.1482 C.ar   1 <0>      -0.0500
    8 C8        3.5009     2.5204     2.3226 C.ar   1 <0>      -0.1200
    9 C9        3.5255     3.3854     3.4005 C.ar   1 <0>      -0.1100
   10 C10       4.1954     4.5908     3.3043 C.ar   1 <0>      -0.1200
   11 C11       4.8410     4.9309     2.1303 C.ar   1 <0>      -0.1100
   12 C12       4.8199     4.0640     1.0537 C.ar   1 <0>      -0.1100
   13 C13       4.9180     0.6832     0.3014 C.ar   1 <0>      -0.0500
   14 C14       4.4569    -0.2054     1.2547 C.ar   1 <0>      -0.1300
   15 C15       5.1899    -1.3379     1.5559 C.ar   1 <0>      -0.1100
   16 C16       6.3839    -1.5822     0.9035 C.ar   1 <0>      -0.1200
   17 C17       6.8446    -0.6942    -0.0505 C.ar   1 <0>      -0.1100
   18 C18       6.1094     0.4362    -0.3547 C.ar   1 <0>      -0.1100
   19 N19      -0.6909     3.8842    -1.1199 N.am   1 <0>      -0.5900
   20 O20      -2.0594     3.6752    -1.4174 O.3    1 <0>      -0.3100
   21 H21       2.0485     3.5934    -1.4249 H      1 <0>       0.1200
   22 H22       1.6718     3.6336     0.3143 H      1 <0>       0.1500
   23 H23       4.5519     2.4101    -0.8978 H      1 <0>       0.1100
   24 H24       2.9776     1.5786     2.3978 H      1 <0>       0.1300
   25 H25       3.0212     3.1196     4.3178 H      1 <0>       0.1300
   26 H26       4.2140     5.2669     4.1463 H      1 <0>       0.1200
   27 H27       5.3640     5.8728     2.0550 H      1 <0>       0.1200
   28 H28       5.3243     4.3298     0.1365 H      1 <0>       0.1200
   29 H29       3.5240    -0.0145     1.7644 H      1 <0>       0.1300
   30 H30       4.8300    -2.0318     2.3011 H      1 <0>       0.1300
   31 H31       6.9570    -2.4667     1.1393 H      1 <0>       0.1300
   32 H32       7.7776    -0.8848    -0.5599 H      1 <0>       0.1200
   33 H33       6.4693     1.1301    -1.1000 H      1 <0>       0.1200
   34 H34      -0.3389     4.7864    -1.0645 H      1 <0>       0.4100
   35 H35      -2.5623     4.4906    -1.5490 H      1 <0>       0.3900
@<TRIPOS>BOND
   1    1    2 2
   2    2    3 1
   3    2   19 am
   4    3    4 1
   5    3   21 1
   6    3   22 1
   7    4    5 2
   8    4    6 1
   9    6    7 1
  10    6   13 1
  11    6   23 1
  12    7   12 ar
  13    7    8 ar
  14    8    9 ar
  15    8   24 1
  16    9   10 ar
  17    9   25 1
  18   10   11 ar
  19   10   26 1
  20   11   12 ar
  21   11   27 1
  22   12   28 1
  23   13   18 ar
  24   13   14 ar
  25   14   15 ar
  26   14   29 1
  27   15   16 ar
  28   15   30 1
  29   16   17 ar
  30   16   31 1
  31   17   18 ar
  32   17   32 1
  33   18   33 1
  34   19   20 1
  35   19   34 1
  36   20   35 1